test/data/case67/case67.m
% Case based on open source meshed AC/HVDC-Overlay test system
% Sass,F., Sennewald,T. and Westermann, D., TU Ilmenau
function mpc = case67acdc_scopf
mpc.version = '2';
mpc.baseMVA = 100.0;
mpc.time_elapsed = 1.0;

%% area data
%	area	refbus
mpc.areas = [
	1	 2  3  4;
];

%% bus data
%	bus_i	type	Pd			Qd			Gs		Bs	area		Vm			Va		baseKV	zone		Vmax				Vmin
mpc.bus = [
	1	 		3	 		0.0	 		0.0	 		0.0	 0.0	 1	    1.0	    0	 		380.0	  1	      1.10000	    0.90000;
	2	 		2	 		0.0	    0.0	    0.0	 0.0	 1	    1.0	    0	 		380.0	  1	      1.10000	    0.90000;
	3	 		1	 		0.0	 		0.0	 		0.0	 0.0	 1	    1.0	    0	 		380.0	  1	      1.10000	    0.90000;
	4	 		2	 		0.0	 		0.0	 		0.0	 0.0	 1	    1.0	    0	 		380.0	  1	      1.10000	    0.90000;
	5	 		2	 	  0.0	    0.0	    0.0	 0.0	 1	    1.0	    0	 		380.0	  1	      1.10000	    0.90000;
	6	 		1	 		191.0	 	76.0	 	0.0	 0.0	 1	    1.0	    0	 		380.0	  1	      1.10000	    0.90000;
  7	 		1	 		0.0	 		0.0	 		0.0	 0.0	 1	    1.0	    0	 		380.0	  1	      1.10000	    0.90000;
	8	 		1	 		287.0	 	73.0	 	0.0	 0.0	 1	    1.0	    0	 		380.0	  1	      1.10000	    0.90000;
	9	 		1	 		186.0	 	74.0	 	0.0	 0.0	 1	    1.0	    0	 		380.0	  1	      1.10000	    0.90000;
	10 		2	 		0.0	 	  0.0	 	  0.0	 0.0	 1	    1.0	    0	 		380.0	  1	      1.10000	    0.90000;
	11 		1	 		271.0	 	55.0	  0.0	 0.0	 1	    1.0	    0	 		380.0	  1	      1.10000	    0.90000;
	12 		1	 		171.0	 	87.0	  0.0	 0.0	 1	    1.0	    0	 		380.0	  1	      1.10000	    0.90000;
	13 		2	 		0.0	 	  0.0	 	  0.0	 0.0	 1	    1.0	    0	 		380.0	  1	      1.10000	    0.90000;
	14 		1	 		199.0	 	60.0	  0.0	 0.0	 1	    1.0	    0	 		380.0	  1	      1.10000	    0.90000;
	15 		1	 		113.0	 	52.5	  0.0	 0.0	 1	    1.0	    0	 		380.0	  1	      1.10000	    0.90000;
	16 		1	 		38  	 	7.0 	  0.0	 0.0	 1	    1.0	    0	 		380.0	  1	      1.10000	    0.90000;
	17 		1	 		275.0	 	106.0	  0.0	 0.0	 1	    1.0	    0	 		380.0	  1	      1.10000	    0.90000;
	18 		2	 		0.0	 	  0.0	 	  0.0	 0.0	 1	    1.0	    0	 		380.0	  1	      1.10000	    0.90000;
	19 		1	 		165.0	 	46.0	  0.0	 0.0	 1	    1.0	    0	 		380.0	  1	      1.10000	    0.90000;
	20 		1	 		178.0	 	82.5	  0.0	 0.0	 1	    1.0	    0	 		380.0	  1	      1.10000	    0.90000;
	21 		1	 		0.0	 	  0.0	    0.0	 0.0	 1	    1.0	    0	 		380.0	  1	      1.10000	    0.90000;
	22 		1	 		30.0	 	7.0	    0.0	 0.0	 1	    1.0	    0	 		380.0	  1	      1.10000	    0.90000;
	23 		1	 		0.0	 	  0.0	 	  0.0	 0.0	 1	    1.0	    0	 		380.0	  1	      1.10000	    0.90000;
	24 		1	 		32.0	 	7.0	    0.0	 0.0	 1	    1.0	    0	 		380.0	  1	      1.10000	    0.90000;
	25 		2	 		0.0	 	  0.0	 	  0.0	 0.0	 1	    1.0	    0	 		380.0	  1	      1.10000	    0.90000;
	26 		1	 		395.0	 	89.0	  0.0	 0.0	 2	    1.0	    0	 		380.0	  1	      1.10000	    0.90000;
	27 		1	 		0.0	 	  0.0	 	  0.0	 0.0	 2	    1.0	    0	 		380.0	  1	      1.10000	    0.90000;
	28 		1	 		665.0	 	99.0	  0.0	 0.0	 2	    1.0	    0	 		380.0	  1	      1.10000	    0.90000;
	29 		2	 		0.0	 	  0.0	 	  0.0	 0.0	 2	    1.0	    0	 		380.0	  1	      1.10000	    0.90000;
	30 		1	 		266.0	 	100.0	  0.0	 0.0	 2	    1.0	    0	 		380.0	  1	      1.10000	    0.90000;
	31 		1	 		845.0	 	119.0	  0.0	 0.0	 2	    1.0	    0	 		380.0	  1	      1.10000	    0.90000;
	32 		1	 		332.0	 	137.0	  0.0	 0.0	 2	    1.0	    0	 		380.0	  1	      1.10000	    0.90000;
	33 		2	 		0.0	 	  0.0	 	  0.0	 0.0	 2	    1.0	    0	 		380.0	  1	      1.10000	    0.90000;
	34 		1	 		540.0	 	158.0	  0.0	 0.0	 2	    1.0	    0	 		380.0	  1	      1.10000	    0.90000;
	35 		1	 		460.0	 	97.0	  0.0	 0.0	 2	    1.0	    0	 		380.0	  1	      1.10000	    0.90000;
  	36 		2	 		0.0	 	  0.0	 	  0.0	 0.0	 2	    1.0	    0	 		380.0	  1	      1.10000	    0.90000;
	37 		1	 		451.0	 	190.0	  0.0	 0.0	 2	    1.0	    0	 		380.0	  1	      1.10000	    0.90000;
	38 		1	 		150.0	 	0.0	    0.0	 0.0	 2	    1.0	    0	 		380.0	  1	      1.10000	    0.90000;
	39 		1	 		629.0	 	87.0	  0.0	 0.0	 2	    1.0	    0	 		380.0	  1	      1.10000	    0.90000;
	40 		1	 		0.0	 	  0.0	 	  0.0	 0.0	 2	    1.0	    0	 		380.0	  1	      1.10000	    0.90000;
	41 		2	 		0.0	 	  0.0	 	  0.0	 0.0	 2	    1.0	    0	 		380.0	  1	      1.10000	    0.90000;
	42 		1	 		859.0	 	180.0	  0.0	 0.0	 2	    1.0	    0	 		380.0	  1	      1.10000	    0.90000;
	43 		2	 		0.0	 	  0.0	 	  0.0	 0.0	 2	    1.0	    0	 		380.0	  1	      1.10000	    0.90000;
	44 		1	 		474.0	 	92.0	  0.0	 0.0	 2	    1.0	    0	 		380.0	  1	      1.10000	    0.90000;
	45 		1	 		668.0	 	109.0	  0.0	 0.0	 2	    1.0	    0	 		380.0	  1	      1.10000	    0.90000;
	46 		1	 		614.0	 	95.0	  0.0	 0.0	 2	    1.0	    0	 		380.0	  1	      1.10000	    0.90000;
	47 		1	 		81.0	 	0.0	    0.0	 0.0	 2	    1.0	    0	 		380.0	  1	      1.10000	    0.90000;
	48 		1	 		0.0	 	  0.0	 	  0.0	 0.0	 2	    1.0	    0	 		380.0	  1	      1.10000	    0.90000;
	49 		1	 		0.0	 	  0.0	 	  0.0	 0.0	 2	    1.0	    0	 		380.0	  1	      1.10000	    0.90000;
	50 		2	 		0.0	 	  0.0	 	  0.0	 0.0	 2	    1.0	    0	 		380.0	  1	      1.10000	    0.90000;
	51 		1	 		430.0	  123.0	  0.0	 0.0	 3	    1.0	    0	 		380.0	  1	      1.10000	    0.90000;
	52 		1	 		309.0	  102.0	  0.0	 0.0	 3	    1.0	    0	 		380.0	  1	      1.10000	    0.90000;
	53 		1	 		100.0	  30.0	  0.0	 0.0	 3	    1.0	    0	 		380.0	  1	      1.10000	    0.90000;
	54 		1	 		0.0	    0.0	    0.0	 0.0	 3	    1.0	    0	 		380.0	  1	      1.10000	    0.90000;
	55 		1	 		303.0	  110.0	  0.0	 0.0	 3	    1.0	    0	 		380.0	  1	      1.10000	    0.90000;
	56 		2	 		0.0	    0.0	    0.0	 0.0	 3	    1.0	    0	 		380.0	  1	      1.10000	    0.90000;
	57 		1	 		0.0	    0.0	    0.0	 0.0	 3	    1.0	    0	 		380.0	  1	      1.10000	    0.90000;
	58 		1	 		324.0	  157.0	  0.0	 0.0	 3	    1.0	    0	 		380.0	  1	      1.10000	    0.90000;
	59 		2	 		0.0	    0.0	    0.0	 0.0	 3	    1.0	    0	 		380.0	  1	      1.10000	    0.90000;
	60 		1	 		115.0	  42.0	  0.0	 0.0	 3	    1.0	    0	 		380.0	  1	      1.10000	    0.90000;
	61 		1	 		187.0	  75.0	  0.0	 0.0	 3	    1.0	    0	 		380.0	  1	      1.10000	    0.90000;
	62 		1	 		319.0	  95.0	  0.0	 0.0	 3	    1.0	    0	 		380.0	  1	      1.10000	    0.90000;
	63 		2 			0.0	    0.0	    0.0	 0.0	 3	    1.0	    0	 		380.0	  1	      1.10000	    0.90000;
	64 		2 			0.0	    0.0	    0.0	 0.0	 3	    1.0	    0	 		380.0	  1	      1.10000	    0.90000;
	65 		1 			315.0	  97.0	  0.0	 0.0	 3	    1.0	    0	 		380.0	  1	      1.10000	    0.90000;
	66 		2 			0.0	    0.0	    0.0	 0.0	 3	    1.0	    0	 		380.0	  1	      1.10000	    0.90000;
	67 		2 			0.0	    0.0	    0.0	 0.0	 4	    1.0	    0	 		380.0	  1	      1.10000	    0.90000;
];

%% generator data
%	bus	Pg			Qg				Qmax		  Qmin		 Vg			   mBase	status	Pmax	  Pmin	 Pc1	 Pc2	 Qc1min	Qc1max	Qc2min	Qc2max	ramp_agc	ramp_10	ramp_30	ramp_q	apf
mpc.gen = [
	1	  700.0	 	23.0	 		1000.0	  -500.0	 1.0526    100.0	 1	 		1000.0	400.0	 0.0	 0.0	 0.0	  0.0	    0.0	     0.0	  0.0	 			0.0	 		0.0	 		0.0	 		0.0;
	2	  1500.0	100.0	 		100.0	     100.0	 1.0526    100.0	 1	 		1500.0	1500.0 0.0	 0.0	 0.0	  0.0	    0.0	     0.0	  0.0	 			0.0	 		0.0	 		0.0	 		0.0;
	4	  523.0	 	140.0	 		350.0	    -350.0	 1.0526  	 100.0	 1	 		560.0	  220.0	 0.0	 0.0	 0.0	  0.0	    0.0	     0.0	  0.0	 			0.0	 		0.0	 		0.0	 		0.0;
	5	  1200.0	100.0	 		100.0	     100.0	 1.0526    100.0	 1	 		1200.0	1200.0 0.0	 0.0	 0.0	  0.0	    0.0	     0.0	  0.0	 			0.0	 		0.0	 		0.0	 		0.0;
	10	436.0	  105.0	 		350.0	    -350.0	 1.0526		 100.0	 1			560.0	  220.0	 0.0	 0.0	 0.0	  0.0	    0.0	     0.0	  0.0	 			0.0			0.0	 		0.0	 		0.0;
	13	541.0	 	117.0	 	  300.0	    -300.0	 1.0526  	 100.0	 1			630.0	  250.0	 0.0	 0.0	 0.0	  0.0	    0.0	     0.0	  0.0	 			0.0	 		0.0	 		0.0			0.0;
	18	681.0	  -35.0	    400.0	    -400.0 	 1.0263    100.0	 1	 		720.0	  300.0	 0.0	 0.0	 0.0	  0.0	    0.0	     0.0	  0.0	 			0.0	 		0.0	 		0.0	 		0.0;
	25	469.0	  59.0	    250.0	    -250.0   1.0395    100.0	 1	 		560.0	  220.0	 0.0	 0.0	 0.0	  0.0	    0.0	     0.0	  0.0	 			0.0	 		0.0	 		0.0	 		0.0;
	29	500.0	  101.0	    350.0	    -350.0	 1.0263    100.0	 1	 		630.0	  250.0	 0.0	 0.0	 0.0	  0.0	    0.0	     0.0	  0.0	 			0.0	 		0.0	 		0.0	 		0.0;
	33	496.0	  306.0	    500.0	    -500.0	 1.0263    100.0	 1	 		850.0	  350.0	 0.0	 0.0	 0.0	  0.0	    0.0	     0.0	  0.0	 			0.0	 		0.0	 		0.0	 		0.0;
	36	512.0	  249.0	    400.0	    -400.0	 1.0263	   100.0	 1	 		720.0	  300.0	 0.0	 0.0	 0.0	  0.0	    0.0	     0.0	  0.0	 			0.0	 		0.0	 		0.0	 		0.0;
	41	350.0	  238.0	    450.0	    -450.0	 1.0395    100.0	 1	 		850.0	  350.0	 0.0	 0.0	 0.0	  0.0	    0.0	     0.0	  0.0	 			0.0	 		0.0	 		0.0	 		0.0;
	43	574.0	  223.0	    500.0	    -250.0	 1.0263    100.0	 1	 		720.0	  220.0	 0.0	 0.0	 0.0	  0.0	    0.0	     0.0	  0.0	 			0.0	 		0.0	 		0.0	 		0.0;
	50	581.0	  150.0	    400.0	    -400.0	 1.0395    100.0	 1	 		720.0	  300.0	 0.0	 0.0	 0.0	  0.0	    0.0	     0.0	  0.0	 			0.0	 		0.0	 		0.0	 		0.0;
	56	496.0	  56.0	    250.0	    -250.0	 1.0395    100.0	 1	 		560.0	  220.0	 0.0	 0.0	 0.0	  0.0	    0.0	     0.0	  0.0	 			0.0	 		0.0	 		0.0	 		0.0;
	59	431.0	  206.0	    350.0	    -350.0	 1.0447    100.0	 1	 		720.0	  300.0	 0.0	 0.0	 0.0	  0.0	    0.0	     0.0	  0.0	 			0.0	 		0.0	 		0.0	 		0.0;
	63	488.0	  152.0	    250.0	    -300.0	 1.0447    100.0	 1	 		520.0	  250.0	 0.0	 0.0	 0.0	  0.0	    0.0	     0.0	  0.0	 			0.0	 		0.0	 		0.0	 		0.0;
	64	300.0	  61.0	    250.0	    -400.0   1.0474    100.0	 1	 		560.0	  250.0	 0.0	 0.0	 0.0	  0.0	    0.0	     0.0	  0.0	 			0.0	 		0.0	 		0.0	 		0.0;
	66	537.0	  143.0	    300.0	    -400.0	 1.0447	   100.0	 1	 		630.0	  250.0	 0.0	 0.0	 0.0	  0.0	    0.0	     0.0	  0.0	 			0.0	 		0.0	 		0.0	 		0.0;
	67	800.0	  0.0	 		  0.0	       0.0	   1.0526    100.0	 1	 		800.0	  800.0  0.0	 0.0	 0.0	  0.0	    0.0	     0.0	  0.0	 			0.0	 		0.0	 		0.0	 		0.0;
];

%% generator cost data
%	2	startup	shutdown	n	c(n-1)	...	c0
mpc.gencost = [
	2	 0.0	 0.0	 3	   0.000000	  10.000000	   0.000000;
	2	 0.0	 0.0	 3	   0.000000	  5.000000	   0.000000;
	2	 0.0	 0.0	 3	   0.000000	  10.000000	   0.000000;
	2	 0.0	 0.0	 3	   0.000000	  5.000000	   0.000000;
	2	 0.0	 0.0	 3	   0.000000	  10.000000	   0.000000;
	2	 0.0	 0.0	 3	   0.000000	  10.000000	   0.000000;
	2	 0.0	 0.0	 3	   0.000000	  10.000000	   0.000000;
	2	 0.0	 0.0	 3	   0.000000	  10.000000	   0.000000;
	2	 0.0	 0.0	 3	   0.000000	  10.000000	   0.000000;
	2	 0.0	 0.0	 3	   0.000000	  10.000000	   0.000000;
	2	 0.0	 0.0	 3	   0.000000	  10.000000	   0.000000;
	2	 0.0	 0.0	 3	   0.000000	  10.000000	   0.000000;
	2	 0.0	 0.0	 3	   0.000000	  10.000000	   0.000000;
	2	 0.0	 0.0	 3	   0.000000	  10.000000	   0.000000;
	2	 0.0	 0.0	 3	   0.000000	  10.000000	   0.000000;
	2	 0.0	 0.0	 3	   0.000000	  10.000000	   0.000000;
	2	 0.0	 0.0	 3	   0.000000	  10.000000	   0.000000;
	2	 0.0	 0.0	 3	   0.000000	  10.000000	   0.000000;
	2	 0.0	 0.0	 3	   0.000000	  10.000000	   0.000000;
	2	 0.0	 0.0	 3	   0.000000	  5.000000	   0.000000;
];

%% branch data
%	fbus	tbus	r				     x			     b				      rateA	   rateB	   rateC		 ratio	angle	  status	angmin	angmax
mpc.branch = [
	1	 		5	 		0.00207756   0.01800554	 0.61242207 	  900.0	   900.0 	   900.0 	   0.0	  0.0	    1	 		  -30.0	 	30.0;
	1	 		7	 		0.00207756   0.01800554	 0.61242207 	  900.0	   900.0 	   900.0  	 0.0	  0.0	    1	 		  -30.0	 	30.0;
	1	 		8	 		0.00207756   0.01800554	 0.61242207 	  900.0	   900.0 	   900.0  	 0.0	  0.0	    1	 		  -30.0	 	30.0;
	1	 		14 		0.00207756   0.01800554	 0.61242207 	  900.0	   900.0 	   900.0  	 0.0	  0.0	    1	 		  -30.0	 	30.0;
	2	 		3 		0.00207756   0.01800554	 0.61242207 	  900.0	   900.0 	   900.0  	 0.0	  0.0	    1	 		  -30.0	 	30.0;
	2	 		9 		0.00207756   0.01800554	 0.61242207 	  900.0	   900.0 	   900.0  	 0.0	  0.0	    1	 		  -30.0	 	30.0;
	2	 		12 		0.00207756   0.01800554	 0.61242207 	  900.0	   900.0 	   900.0  	 0.0	  0.0	    1	 		  -30.0	 	30.0;
	3	 		4 		0.00207756   0.01800554	 0.61242207 	  900.0	   900.0 	   900.0  	 0.0	  0.0	    1	 		  -30.0	 	30.0;
	3	 		10 		0.00207756   0.01800554	 0.61242207 	  900.0	   900.0 	   900.0  	 0.0	  0.0	    1	 		  -30.0	 	30.0;
	3	 		12 		0.00207756   0.01800554	 0.61242207 	  900.0	   900.0 	   900.0  	 0.0	  0.0	    1	 		  -30.0	 	30.0;
	3	 		9 		0.00207756   0.01800554	 0.61242207 	  900.0	   900.0 	   900.0  	 0.0	  0.0	    1	 		  -30.0	 	30.0;
	4	 		14 		0.00207756   0.01800554	 0.61242207 	  900.0	   900.0 	   900.0  	 0.0	  0.0	    1	 		  -30.0	 	30.0;
	4	 		19 		0.00207756   0.01800554	 0.61242207 	  900.0	   900.0 	   900.0  	 0.0	  0.0	    1	 		  -30.0	 	30.0;
	5	 		6 		0.00207756   0.01800554	 0.61242207 	  900.0	   900.0 	   900.0  	 0.0	  0.0	    1	 		  -30.0	 	30.0;
	5	 		7 		0.00207756   0.01800554	 0.61242207 	  900.0	   900.0 	   900.0  	 0.0	  0.0	    1	 		  -30.0	 	30.0;
	5	 		8 		0.00207756   0.01800554	 0.61242207 	  900.0	   900.0 	   900.0  	 0.0	  0.0	    1	 		  -30.0	 	30.0;
	6	 		7 		0.00207756   0.01800554	 0.61242207 	  900.0	   900.0 	   900.0  	 0.0	  0.0	    1	 		  -30.0	 	30.0;
	7	 		15 		0.00207756   0.01800554	 0.61242207 	  900.0	   900.0 	   900.0  	 0.0	  0.0	    1	 		  -30.0	 	30.0;
	7	 		16 		0.00207756   0.01800554	 0.61242207 	  900.0	   900.0 	   900.0  	 0.0	  0.0	    1	 		  -30.0	 	30.0;
	8	 		9 		0.00207756   0.01800554	 0.61242207 	  900.0	   900.0 	   900.0  	 0.0	  0.0	    1	 		  -30.0	 	30.0;
	10 		11 		0.00207756   0.01800554	 0.61242207 	  900.0	   900.0 	   900.0  	 0.0	  0.0	    1	 		  -30.0	 	30.0;
	10 		22 		0.00207756   0.01800554	 0.61242207 	  900.0	   900.0 	   900.0  	 0.0	  0.0	    1	 		  -30.0	 	30.0;
	11 		12 		0.00207756   0.01800554	 0.61242207 	  900.0	   900.0 	   900.0  	 0.0	  0.0	    1	 		  -30.0	 	30.0;
	11 		13 		0.00207756   0.01800554	 0.61242207 	  900.0	   900.0 	   900.0  	 0.0	  0.0	    1	 		  -30.0	 	30.0;
	12 		13 		0.00207756   0.01800554	 0.61242207 	  900.0	   900.0 	   900.0  	 0.0	  0.0	    1	 		  -30.0	 	30.0;
	13 		53 		0.00207756   0.01800554	 0.61242207 	  900.0	   900.0 	   900.0  	 0.0	  0.0	    1	 		  -30.0	 	30.0;
	14 		15 		0.00207756   0.01800554	 0.61242207 	  900.0	   900.0 	   900.0  	 0.0	  0.0	    1	 		  -30.0	 	30.0;
	14 		18 		0.00207756   0.01800554	 0.61242207 	  900.0	   900.0 	   900.0  	 0.0	  0.0	    1	 		  -30.0	 	30.0;
  16 		17 		0.00207756   0.01800554	 0.61242207 	  900.0	   900.0 	   900.0  	 0.0	  0.0	    1	 		  -30.0	 	30.0;
	16 		18 		0.00207756   0.01800554	 0.61242207 	  900.0	   900.0 	   900.0  	 0.0	  0.0	    1	 		  -30.0	 	30.0;
	17 		24 		0.00207756   0.01800554	 0.61242207 	  900.0	   900.0 	   900.0  	 0.0	  0.0	    1	 		  -30.0	 	30.0;
	18 		24 		0.00207756   0.01800554	 0.61242207 	  900.0	   900.0 	   900.0  	 0.0	  0.0	    1	 		  -30.0	 	30.0;
	19 		20 		0.00207756   0.01800554	 0.61242207 	  900.0	   900.0 	   900.0  	 0.0	  0.0	    1	 		  -30.0	 	30.0;
	19 		23 		0.00207756   0.01800554	 0.61242207 	  900.0	   900.0 	   900.0  	 0.0	  0.0	    1	 		  -30.0	 	30.0;
	20 		21 		0.00207756   0.01800554	 0.61242207 	  900.0	   900.0 	   900.0  	 0.0	  0.0	    1	 		  -30.0	 	30.0;
	21 		25 		0.00207756   0.01800554	 0.61242207 	  900.0	   900.0 	   900.0  	 0.0	  0.0	    1	 		  -30.0	 	30.0;
	21 		22 		0.00207756   0.01800554	 0.61242207 	  900.0	   900.0 	   900.0  	 0.0	  0.0	    1	 		  -30.0	 	30.0;
	21 		23 		0.00207756   0.01800554	 0.61242207 	  900.0	   900.0 	   900.0  	 0.0	  0.0	    1	 		  -30.0	 	30.0;
	22 		25 		0.00207756   0.01800554	 0.61242207 	  900.0	   900.0 	   900.0  	 0.0	  0.0	    1	 		  -30.0	 	30.0;
	18 		20 		0.00207756   0.01800554	 0.61242207 	  900.0	   900.0 	   900.0  	 0.0	  0.0	    1	 		  -30.0	 	30.0;
	24 		49 		0.00207756   0.01800554	 0.61242207 	  900.0	   900.0 	   900.0  	 0.0	  0.0	    1	 		  -30.0	 	30.0;
	25 		43 		0.00207756   0.01800554	 0.61242207 	  900.0	   900.0 	   900.0  	 0.0	  0.0	    1	 		  -30.0	 	30.0;
	26 		27 		0.00207756   0.01800554	 0.61242207 	  900.0	   900.0 	   900.0  	 0.0	  0.0	    1	 		  -30.0	 	30.0;
	26 		31 		0.00207756   0.01800554	 0.61242207 	  900.0	   900.0 	   900.0  	 0.0	  0.0	    1	 		  -30.0	 	30.0;
	26 		40 		0.00207756   0.01800554	 0.61242207 	  900.0	   900.0 	   900.0  	 0.0	  0.0	    1	 		  -30.0	 	30.0;
	27 		28 		0.00207756   0.01800554	 0.61242207 	  900.0	   900.0 	   900.0  	 0.0	  0.0	    1	 		  -30.0	 	30.0;
	28 		35 		0.00207756   0.01800554	 0.61242207 	  900.0	   900.0 	   900.0  	 0.0	  0.0	    1	 		  -30.0	 	30.0;
	28 		37 		0.00207756   0.01800554	 0.61242207 	  900.0	   900.0 	   900.0  	 0.0	  0.0	    1	 		  -30.0	 	30.0;
	29 		39 		0.00207756   0.01800554	 0.61242207 	  900.0	   900.0 	   900.0  	 0.0	  0.0	    1	 		  -30.0	 	30.0;
	29 		44 		0.00207756   0.01800554	 0.61242207 	  900.0	   900.0 	   900.0  	 0.0	  0.0	    1	 		  -30.0	 	30.0;
	30 		31 		0.00207756   0.01800554	 0.61242207 	  900.0	   900.0 	   900.0  	 0.0	  0.0	    1	 		  -30.0	 	30.0;
	31 		27 		0.00207756   0.01800554	 0.61242207 	  900.0	   900.0 	   900.0  	 0.0	  0.0	    1	 		  -30.0	 	30.0;
	30 		26 		0.00207756   0.01800554	 0.61242207 	  900.0	   900.0 	   900.0  	 0.0	  0.0	    1	 		  -30.0	 	30.0;
	32 		40 		0.00207756   0.01800554	 0.61242207 	  900.0	   900.0 	   900.0  	 0.0	  0.0	    1	 		  -30.0	 	30.0;
	41 		40 		0.00207756   0.01800554	 0.61242207 	  900.0	   900.0 	   900.0  	 0.0	  0.0	    1	 		  -30.0	 	30.0;
	43 		44 		0.00207756   0.01800554	 0.61242207 	  900.0	   900.0 	   900.0  	 0.0	  0.0	    1	 		  -30.0	 	30.0;
	33 		51 		0.00207756   0.01800554	 0.61242207 	  900.0	   900.0 	   900.0  	 0.0	  0.0	    1	 		  -30.0	 	30.0;
	33 		34 		0.00207756   0.01800554	 0.61242207 	  900.0	   900.0 	   900.0  	 0.0	  0.0	    1	 		  -30.0	 	30.0;
	34 		51 		0.00207756   0.01800554	 0.61242207 	  900.0	   900.0 	   900.0  	 0.0	  0.0	    1	 		  -30.0	 	30.0;
	35 		33 		0.00207756   0.01800554	 0.61242207 	  900.0	   900.0 	   900.0  	 0.0	  0.0	    1	 		  -30.0	 	30.0;
	35 		36 		0.00207756   0.01800554	 0.61242207 	  900.0	   900.0 	   900.0  	 0.0	  0.0	    1	 		  -30.0	 	30.0;
	35 		47 		0.00207756   0.01800554	 0.61242207 	  900.0	   900.0 	   900.0  	 0.0	  0.0	    1	 		  -30.0	 	30.0;
	29 		35 		0.00207756   0.01800554	 0.61242207 	  900.0	   900.0 	   900.0  	 0.0	  0.0	    1	 		  -30.0	 	30.0;
	36 		37 		0.00207756   0.01800554	 0.61242207 	  900.0	   900.0 	   900.0  	 0.0	  0.0	    1	 		  -30.0	 	30.0;
	36 		38 		0.00207756   0.01800554	 0.61242207 	  900.0	   900.0 	   900.0  	 0.0	  0.0	    1	 		  -30.0	 	30.0;
	37 		38 		0.00207756   0.01800554	 0.61242207 	  900.0	   900.0 	   900.0  	 0.0	  0.0	    1	 		  -30.0	 	30.0;
	39 		40 		0.00207756   0.01800554	 0.61242207 	  900.0	   900.0 	   900.0  	 0.0	  0.0	    1	 		  -30.0	 	30.0;
	39 		43 		0.00207756   0.01800554	 0.61242207 	  900.0	   900.0 	   900.0  	 0.0	  0.0	    1	 		  -30.0	 	30.0;
	41 		42 		0.00207756   0.01800554	 0.61242207 	  900.0	   900.0 	   900.0  	 0.0	  0.0	    1	 		  -30.0	 	30.0;
	42 		43 		0.00207756   0.01800554	 0.61242207 	  900.0	   900.0 	   900.0  	 0.0	  0.0	    1	 		  -30.0	 	30.0;
	42 		49 		0.00207756   0.01800554	 0.61242207 	  900.0	   900.0 	   900.0  	 0.0	  0.0	    1	 		  -30.0	 	30.0;
	43 		49 		0.00207756   0.01800554	 0.61242207 	  900.0	   900.0 	   900.0  	 0.0	  0.0	    1	 		  -30.0	 	30.0;
	44 		45 		0.00207756   0.01800554	 0.61242207 	  900.0	   900.0 	   900.0  	 0.0	  0.0	    1	 		  -30.0	 	30.0;
	44 		48 		0.00207756   0.01800554	 0.61242207 	  900.0	   900.0 	   900.0  	 0.0	  0.0	    1	 		  -30.0	 	30.0;
	45 		46 		0.00207756   0.01800554	 0.61242207 	  900.0	   900.0 	   900.0  	 0.0	  0.0	    1	 		  -30.0	 	30.0;
	45 		50 		0.00207756   0.01800554	 0.61242207 	  900.0	   900.0 	   900.0  	 0.0	  0.0	    1	 		  -30.0	 	30.0;
	47 		48 		0.00207756   0.01800554	 0.61242207 	  900.0	   900.0 	   900.0  	 0.0	  0.0	    1	 		  -30.0	 	30.0;
	46 		48 		0.00207756   0.01800554	 0.61242207 	  900.0	   900.0 	   900.0  	 0.0	  0.0	    1	 		  -30.0	 	30.0;
	47 		50 		0.00207756   0.01800554	 0.61242207 	  900.0	   900.0 	   900.0  	 0.0	  0.0	    1	 		  -30.0	 	30.0;
	47 		51 		0.00207756   0.01800554	 0.61242207 	  900.0	   900.0 	   900.0  	 0.0	  0.0	    1	 		  -30.0	 	30.0;
	47 		59 		0.00207756   0.01800554	 0.61242207 	  900.0	   900.0 	   900.0  	 0.0	  0.0	    1	 		  -30.0	 	30.0;
	52 		53 		0.00207756   0.01800554	 0.61242207 	  900.0	   900.0 	   900.0  	 0.0	  0.0	    1	 		  -30.0	 	30.0;
	52 		54 		0.00207756   0.01800554	 0.61242207 	  900.0	   900.0 	   900.0  	 0.0	  0.0	    1	 		  -30.0	 	30.0;
	63 		55 		0.00207756   0.01800554	 0.61242207 	  900.0	   900.0 	   900.0  	 0.0	  0.0	    1	 		  -30.0	 	30.0;
	22 		56 		0.00207756   0.01800554	 0.61242207 	  900.0	   900.0 	   900.0  	 0.0	  0.0	    1	 		  -30.0	 	30.0;
	54 		65 		0.00207756   0.01800554	 0.61242207 	  900.0	   900.0 	   900.0  	 0.0	  0.0	    1	 		  -30.0	 	30.0;
	55 		57 		0.00207756   0.01800554	 0.61242207 	  900.0	   900.0 	   900.0  	 0.0	  0.0	    1	 		  -30.0	 	30.0;
	58 		61 		0.00207756   0.01800554	 0.61242207 	  900.0	   900.0 	   900.0  	 0.0	  0.0	    1	 		  -30.0	 	30.0;
	56 		59 		0.00207756   0.01800554	 0.61242207 	  900.0	   900.0 	   900.0  	 0.0	  0.0	    1	 		  -30.0	 	30.0;
	57 		58 		0.00207756   0.01800554	 0.61242207 	  900.0	   900.0 	   900.0  	 0.0	  0.0	    1	 		  -30.0	 	30.0;
	56 		58 		0.00207756   0.01800554	 0.61242207 	  900.0	   900.0 	   900.0  	 0.0	  0.0	    1	 		  -30.0	 	30.0;
	58 		60 		0.00207756   0.01800554	 0.61242207 	  900.0	   900.0 	   900.0  	 0.0	  0.0	    1	 		  -30.0	 	30.0;
	62 		66 		0.00207756   0.01800554	 0.61242207 	  900.0	   900.0 	   900.0  	 0.0	  0.0	    1	 		  -30.0	 	30.0;
	61 		62 		0.00207756   0.01800554	 0.61242207 	  900.0	   900.0 	   900.0  	 0.0	  0.0	    1	 		  -30.0	 	30.0;
	52 		64 		0.00207756   0.01800554	 0.61242207 	  900.0	   900.0 	   900.0  	 0.0	  0.0	    1	 		  -30.0	 	30.0;
	62 		63 		0.00207756   0.01800554	 0.61242207 	  900.0	   900.0 	   900.0  	 0.0	  0.0	    1	 		  -30.0	 	30.0;
	59 		60 		0.00207756   0.01800554	 0.61242207 	  900.0	   900.0 	   900.0  	 0.0	  0.0	    1	 		  -30.0	 	30.0;
	63 		57 		0.00207756   0.01800554	 0.61242207 	  900.0	   900.0 	   900.0  	 0.0	  0.0	    1	 		  -30.0	 	30.0;
	65 		66 		0.00207756   0.01800554	 0.61242207 	  900.0	   900.0 	   900.0  	 0.0	  0.0	    1	 		  -30.0	 	30.0;
	66 		54 		0.00207756   0.01800554	 0.61242207 	  900.0	   900.0 	   900.0  	 0.0	  0.0	    1	 		  -30.0	 	30.0;
	66 		64 		0.00207756   0.01800554	 0.61242207 	  900.0	   900.0 	   900.0  	 0.0	  0.0	    1	 		  -30.0	 	30.0;
	30 		32 		0.00207756   0.01800554	 0.61242207 	  900.0	   900.0 	   900.0  	 0.0	  0.0	    1	 		  -30.0	 	30.0;
];

%% dc grid topology
%colunm_names% dcpoles
mpc.dcpol=2;
% numbers of poles (1=monopolar grid, 2=bipolar grid)
%% bus data
%column_names%   busdc_i  grid    Pdc     Vdc     basekVdc  Vdcmax  Vdcmin  Cdc
mpc.busdc = [
    			1       1       0       1       500       1.05     0.95     0;
    			2       1       0       1       500       1.05     0.95     0;
				3       1       0       1       500       1.05     0.95     0;
				4       1       0       1       500       1.05     0.95     0;
				5       1       0       1       500       1.05     0.95     0;
				6       1       0       1       500       1.05     0.95     0;
				7       1       0       1       500       1.05     0.95     0;
				8       1       0       1       500       1.05     0.95     0;
				9       1       0       1       500       1.05     0.95     0;
];

%% converters
%column_names%    busdc_i busac_i type_dc type_ac P_g   Q_g   islcc  Vtar   rtf 	xtf  transformer tm   bf 	filter    rc     xc   reactor   basekVac   Vmmax   Vmmin      Imax    status   LossA  LossB  LossCrec LossCinv  droop      Pdcset    Vdcset  dVdcset Pacmax  Pacmin   Qacmax  Qacmin
mpc.convdc = [
    				1       7   		2       1       -550   0    0 			1     0.01  0.01 0 						1 	0.01 0 				0.01   0.01 0  				500         1.05     0.95     1.1     1        0.0   0.0     0.0       0.0      0.0050     0.0       1.0000   0 		 2000  	-2000  		1000 		-1000;
					2       40   		3       1       1000   0    0 			1     0.01  0.01 0 						1 	0.01 0 				0.01   0.01 0  				500         1.05     0.95     1.1     1        0.0   0.0     0.0       0.0      0.0050     0.0       1.0000   0 		 2000 	-2000  		1000 		-1000;
                  	3       3   		3       1       -550   0    0 			1     0.01  0.01 0 						1 	0.01 0 				0.01   0.01 0  				500         1.05     0.95     1.1     1        0.0   0.0     0.0       0.0      0.0050     0.0       1.0000   0 		 2000 	-2000 		1000 		-1000;
					4       23   		3       1       -600   0    0 			1     0.01  0.01 0 						1 	0.01 0 				0.01   0.01 0  				500         1.05     0.95     1.1     1        0.0   0.0     0.0       0.0      0.0050     0.0       1.0000   0 		 2000 	-2000 		1000 		-1000;
					5       48   		3       1       1000   0    0 			1     0.01  0.01 0 						1 	0.01 0 				0.01   0.01 0  				500         1.05     0.95     1.1     1        0.0   0.0     0.0       0.0      0.0050     0.0       1.0000   0 		 2000 	-2000  		1000 		-1000;
					6       54   		3       1       50     0    0 			1     0.01  0.01 0 						1 	0.01 0 				0.01   0.01 0  				500         1.05     0.95     1.1     1        0.0   0.0     0.0       0.0      0.0050     0.0       1.0000   0 		 2000 	-2000 		1000 		-1000;
					7       57   		3       1       -550   0    0 			1     0.01  0.01 0 						1 	0.01 0 				0.01   0.01 0  				500         1.05     0.95     1.1     1        0.0   0.0     0.0       0.0      0.0050     0.0       1.0000   0 		 2000 	-2000 		1000 		-1000;
					8       27   		3       1       1000   0    0 			1     0.01  0.01 0 						1 	0.01 0 				0.01   0.01 0  				500         1.05     0.95     1.1     1        0.0   0.0     0.0       0.0      0.0050     0.0       1.0000   0 		 2000 	-2000  		1000 		-1000;
					9       67   		1       1       -800   0    0 			1     0.01  0.01 0 						1 	0.01 0 				0.01   0.01 0  				500         1.05     0.95     1.1     1        0.0   0.0     0.0       0.0      0.0050     0.0       1.0000   0 		 1000  	-1000   	1000 		-1000;
];


%% branches
%column_names%   fbusdc  tbusdc  r        l   c   rateA   rateB   rateC   status
mpc.branchdc = [
    				1       2       0.0012   0   0   1575    1575    1575     1;
    				3       4       0.0012   0   0   1575    1575    1575     1;
    				4       5       0.0012   0   0   1575    1575    1575     1;
					6       7       0.0012   0   0   1575    1575    1575     1;
					1       3       0.0012   0   0   1575    1575    1575     1;
					2       8       0.0012   0   0   1575    1575    1575     1;
					8       5       0.0012   0   0   1575    1575    1575     1;
					4       6       0.0012   0   0   1575    1575    1575     1;
					2       4       0.0012   0   0   1575    1575    1575     1;
					5       7       0.0012   0   0   1575    1575    1575     1;
					3       9       0.0012   0   0   1575    1575    1575     1;
 ];
